   384
Framework Type SOD
O           4.4820      7.6500      7.6500
O           7.6500      4.4830      7.6500
O           7.6500      7.6500      4.4820
O          10.2800      4.4830      7.6500
O          13.4470      7.6500      7.6500
O          16.6150      4.4830      7.6500
O          10.2800      7.6500      4.4820
O           8.9650      5.7980      5.7980
O          16.6150      7.6500      4.4820
O          19.2450      4.4830      7.6500
O          22.4120      7.6500      7.6500
O          19.2450      7.6500      4.4820
O          17.9300      5.7980      5.7980
O           7.6500     10.2800      4.4820
O           5.7980      8.9650      5.7980
O           4.4820     16.6150      7.6500
O           7.6500     13.4470      7.6500
O           4.4820     10.2800      7.6500
O           7.6500     16.6150      4.4820
O          10.2800     13.4470      7.6500
O          16.6150     10.2800      4.4820
O           8.9650     12.1320      5.7980
O          14.7630      8.9650      5.7980
O          13.4470     16.6150      7.6500
O          16.6150     13.4470      7.6500
O          10.2800     10.2800      4.4820
O          12.1320      8.9650      5.7980
O          13.4470     10.2800      7.6500
O          10.2800     16.6150      4.4820
O           8.9650     14.7630      5.7980
O          16.6150     16.6150      4.4820
O          19.2450     13.4470      7.6500
O          17.9300     12.1320      5.7980
O          22.4120     16.6150      7.6500
O          19.2450     10.2800      4.4820
O          21.0970      8.9650      5.7980
O          22.4120     10.2800      7.6500
O          19.2450     16.6150      4.4820
O          17.9300     14.7630      5.7980
O           7.6500     19.2450      4.4820
O           5.7980     17.9300      5.7980
O           7.6500     22.4120      7.6500
O           4.4820     19.2450      7.6500
O          10.2800     22.4120      7.6500
O          16.6150     19.2450      4.4820
O           8.9650     21.0970      5.7980
O          14.7630     17.9300      5.7980
O          16.6150     22.4120      7.6500
O          10.2800     19.2450      4.4820
O          12.1320     17.9300      5.7980
O          13.4470     19.2450      7.6500
O          19.2450     22.4120      7.6500
O          17.9300     21.0970      5.7980
O          19.2450     19.2450      4.4820
O          21.0970     17.9300      5.7980
O          22.4120     19.2450      7.6500
O           4.4820      7.6500     10.2800
O           4.4820      7.6500     16.6150
O           7.6500      4.4830     16.6150
O           5.7980      5.7980      8.9650
O           7.6500      4.4830     10.2800
O           7.6500      7.6500     13.4470
O          10.2800      4.4830     16.6150
O          12.1320      5.7980      8.9650
O          13.4470      7.6500     10.2800
O          10.2800      4.4830     10.2800
O          13.4470      7.6500     16.6150
O          16.6150      4.4830     16.6150
O          14.7630      5.7980      8.9650
O          16.6150      4.4830     10.2800
O           8.9650      5.7980     12.1320
O          10.2800      7.6500     13.4470
O           8.9650      5.7980     14.7630
O          16.6150      7.6500     13.4470
O          19.2450      4.4830     16.6150
O          21.0970      5.7980      8.9650
O          22.4120      7.6500     10.2800
O          19.2450      4.4830     10.2800
O          22.4120      7.6500     16.6150
O          17.9300      5.7980     12.1320
O          19.2450      7.6500     13.4470
O          17.9300      5.7980     14.7630
O           5.7980      8.9650     12.1320
O           7.6500     10.2800     13.4470
O           4.4820     16.6150     10.2800
O           5.7980      8.9650     14.7630
O           4.4820     16.6150     16.6150
O           7.6500     13.4480     16.6150
O           5.7980     14.7630      8.9650
O           7.6500     13.4470     10.2800
O           4.4820     10.2800     16.6150
O           5.7980     12.1320      8.9650
O           4.4820     10.2800     10.2800
O           7.6500     16.6150     13.4470
O          10.2800     13.4480     16.6150
O          14.7630      8.9650     12.1320
O          16.6150     10.2800     13.4470
O          12.1320     14.7630      8.9650
O          13.4470     16.6150     10.2800
O           8.9650     12.1320     14.7630
O          10.2800     13.4470     10.2800
O          14.7630      8.9650     14.7630
O          13.4470     16.6150     16.6150
O           8.9650     12.1320     12.1320
O          16.6150     13.4480     16.6150
O          12.1320      8.9650     12.1320
O          10.2800     10.2800     13.4470
O          14.7630     14.7630      8.9650
O          16.6150     13.4470     10.2800
O          12.1320      8.9650     14.7630
O          13.4470     10.2800     16.6150
O           8.9650     14.7630     12.1320
O          10.2800     16.6150     13.4470
O          14.7630     12.1320      8.9650
O          13.4470     10.2800     10.2800
O           8.9650     14.7630     14.7630
O          16.6150     16.6150     13.4470
O          12.1320     12.1320      8.9650
O          19.2450     13.4480     16.6150
O          21.0970     14.7630      8.9650
O          22.4120     16.6150     10.2800
O          17.9300     12.1320     14.7630
O          19.2450     13.4470     10.2800
O          22.4120     16.6150     16.6150
O          17.9300     12.1320     12.1320
O          21.0970      8.9650     12.1320
O          19.2450     10.2800     13.4470
O          21.0970      8.9650     14.7630
O          22.4120     10.2800     16.6150
O          17.9300     14.7630     12.1320
O          19.2450     16.6150     13.4470
O          22.4120     10.2800     10.2800
O          17.9300     14.7630     14.7630
O          21.0970     12.1320      8.9650
O           5.7980     17.9300     12.1320
O           7.6500     19.2450     13.4470
O           5.7980     17.9300     14.7630
O           7.6500     22.4130     16.6150
O           7.6500     22.4120     10.2800
O           4.4820     19.2450     16.6150
O           5.7980     21.0970      8.9650
O           4.4820     19.2450     10.2800
O          10.2800     22.4130     16.6150
O          14.7630     17.9300     12.1320
O          16.6150     19.2450     13.4470
O           8.9650     21.0970     14.7630
O          10.2800     22.4120     10.2800
O          14.7630     17.9300     14.7630
O           8.9650     21.0970     12.1320
O          16.6150     22.4130     16.6150
O          12.1320     17.9300     12.1320
O          10.2800     19.2450     13.4470
O          16.6150     22.4120     10.2800
O          12.1320     17.9300     14.7630
O          13.4470     19.2450     16.6150
O          14.7630     21.0970      8.9650
O          13.4470     19.2450     10.2800
O          12.1320     21.0970      8.9650
O          19.2450     22.4130     16.6150
O          17.9300     21.0970     14.7630
O          19.2450     22.4120     10.2800
O          17.9300     21.0970     12.1320
O          21.0970     17.9300     12.1320
O          19.2450     19.2450     13.4470
O          21.0970     17.9300     14.7630
O          22.4120     19.2450     16.6150
O          22.4120     19.2450     10.2800
O          21.0970     21.0970      8.9650
O           4.4820      7.6500     19.2450
O           5.7980      5.7980     17.9300
O           7.6500      4.4830     19.2450
O           7.6500      7.6500     22.4130
O          12.1320      5.7980     17.9300
O          13.4470      7.6500     19.2450
O          10.2800      4.4830     19.2450
O          14.7630      5.7980     17.9300
O          16.6150      4.4830     19.2450
O           8.9650      5.7980     21.0970
O          10.2800      7.6500     22.4130
O          16.6150      7.6500     22.4130
O          21.0970      5.7980     17.9300
O          22.4120      7.6500     19.2450
O          19.2450      4.4830     19.2450
O          17.9300      5.7980     21.0970
O          19.2450      7.6500     22.4130
O           5.7980      8.9650     21.0970
O           7.6500     10.2800     22.4130
O           4.4820     16.6150     19.2450
O           5.7980     14.7630     17.9300
O           7.6500     13.4480     19.2450
O           5.7980     12.1320     17.9300
O           4.4820     10.2800     19.2450
O           7.6500     16.6150     22.4120
O          14.7630      8.9650     21.0970
O          16.6150     10.2800     22.4130
O          12.1320     14.7630     17.9300
O          13.4470     16.6150     19.2450
O          10.2800     13.4480     19.2450
O           8.9650     12.1320     21.0970
O          12.1320      8.9650     21.0970
O          10.2800     10.2800     22.4130
O          14.7630     14.7630     17.9300
O          16.6150     13.4480     19.2450
O           8.9650     14.7630     21.0970
O          10.2800     16.6150     22.4120
O          14.7630     12.1320     17.9300
O          13.4470     10.2800     19.2450
O          16.6150     16.6150     22.4120
O          12.1320     12.1320     17.9300
O          21.0970     14.7630     17.9300
O          22.4120     16.6150     19.2450
O          19.2450     13.4480     19.2450
O          17.9300     12.1320     21.0970
O          21.0970      8.9650     21.0970
O          19.2450     10.2800     22.4130
O          17.9300     14.7630     21.0970
O          19.2450     16.6150     22.4120
O          22.4120     10.2800     19.2450
O          21.0970     12.1320     17.9300
O           5.7980     17.9300     21.0970
O           7.6500     19.2450     22.4120
O           7.6500     22.4130     19.2450
O           5.7980     21.0970     17.9300
O           4.4820     19.2450     19.2450
O          14.7630     17.9300     21.0970
O          16.6150     19.2450     22.4120
O          10.2800     22.4130     19.2450
O           8.9650     21.0970     21.0970
O          12.1320     17.9300     21.0970
O          10.2800     19.2450     22.4120
O          16.6150     22.4130     19.2450
O          14.7630     21.0970     17.9300
O          13.4470     19.2450     19.2450
O          12.1320     21.0970     17.9300
O          19.2450     22.4130     19.2450
O          17.9300     21.0970     21.0970
O          21.0970     17.9300     21.0970
O          19.2450     19.2450     22.4120
O          22.4120     19.2450     19.2450
O          21.0970     21.0970     17.9300
Si          8.9650      4.4830      6.7240
Si          8.9650      6.7240      4.4820
Si         17.9300      4.4830      6.7240
Si         17.9300      6.7240      4.4820
Si          6.7240      8.9650      4.4820
Si          4.4820      8.9650      6.7240
Si         15.6890      8.9650      4.4820
Si          8.9650     11.2060      4.4820
Si          8.9650     13.4470      6.7240
Si         13.4470      8.9650      6.7240
Si         11.2060      8.9650      4.4820
Si          8.9650     15.6890      4.4820
Si         17.9300     11.2060      4.4820
Si         17.9300     13.4470      6.7240
Si         22.4120      8.9650      6.7240
Si         20.1710      8.9650      4.4820
Si         17.9300     15.6890      4.4820
Si          6.7240     17.9300      4.4820
Si          4.4820     17.9300      6.7240
Si         15.6890     17.9300      4.4820
Si          8.9650     20.1710      4.4820
Si          8.9650     22.4120      6.7240
Si         13.4470     17.9300      6.7240
Si         11.2060     17.9300      4.4820
Si         17.9300     20.1710      4.4820
Si         17.9300     22.4120      6.7240
Si         22.4120     17.9300      6.7240
Si         20.1710     17.9300      4.4820
Si          4.4820      6.7240      8.9650
Si          6.7240      4.4830      8.9650
Si         11.2060      4.4830      8.9650
Si         13.4470      6.7240      8.9650
Si          8.9650      4.4830     15.6890
Si          8.9650      4.4830     11.2060
Si         15.6890      4.4830      8.9650
Si          8.9650      6.7240     13.4470
Si         20.1710      4.4830      8.9650
Si         22.4120      6.7240      8.9650
Si         17.9300      4.4830     15.6890
Si         17.9300      4.4830     11.2060
Si         17.9300      6.7240     13.4470
Si          6.7240      8.9650     13.4470
Si          4.4820     15.6890      8.9650
Si          4.4820      8.9650     11.2060
Si          4.4820      8.9650     15.6890
Si          6.7240     13.4470      8.9650
Si          4.4820     11.2060      8.9650
Si         11.2060     13.4470      8.9650
Si         15.6890      8.9650     13.4470
Si          8.9650     11.2060     13.4470
Si         13.4470     15.6890      8.9650
Si         13.4470      8.9650     11.2060
Si          8.9650     13.4470     15.6890
Si         13.4470      8.9650     15.6890
Si          8.9650     13.4470     11.2060
Si         15.6890     13.4470      8.9650
Si         11.2060      8.9650     13.4470
Si         13.4470     11.2060      8.9650
Si          8.9650     15.6890     13.4470
Si         20.1710     13.4470      8.9650
Si         17.9300     11.2060     13.4470
Si         22.4120     15.6890      8.9650
Si         22.4120      8.9650     11.2060
Si         17.9300     13.4470     15.6890
Si         22.4120      8.9650     15.6890
Si         17.9300     13.4470     11.2060
Si         20.1710      8.9650     13.4470
Si         22.4120     11.2060      8.9650
Si         17.9300     15.6890     13.4470
Si          6.7240     17.9300     13.4470
Si          4.4820     17.9300     11.2060
Si          4.4820     17.9300     15.6890
Si          6.7240     22.4120      8.9650
Si          4.4820     20.1710      8.9650
Si         11.2060     22.4120      8.9650
Si         15.6890     17.9300     13.4470
Si          8.9650     20.1710     13.4470
Si         13.4470     17.9300     11.2060
Si          8.9650     22.4130     15.6890
Si         13.4470     17.9300     15.6890
Si          8.9650     22.4130     11.2060
Si         15.6890     22.4120      8.9650
Si         11.2060     17.9300     13.4470
Si         13.4470     20.1710      8.9650
Si         20.1710     22.4120      8.9650
Si         17.9300     20.1710     13.4470
Si         22.4120     17.9300     11.2060
Si         17.9300     22.4130     15.6890
Si         22.4120     17.9300     15.6890
Si         17.9300     22.4130     11.2060
Si         20.1710     17.9300     13.4470
Si         22.4120     20.1710      8.9650
Si          4.4820      6.7240     17.9300
Si          6.7240      4.4830     17.9300
Si         11.2060      4.4830     17.9300
Si         13.4470      6.7240     17.9300
Si          8.9650      4.4830     20.1710
Si         15.6890      4.4830     17.9300
Si          8.9650      6.7240     22.4130
Si         20.1710      4.4830     17.9300
Si         22.4120      6.7240     17.9300
Si         17.9300      4.4830     20.1710
Si         17.9300      6.7240     22.4130
Si          6.7240      8.9650     22.4130
Si          4.4820     15.6890     17.9300
Si          4.4820      8.9650     20.1710
Si          6.7240     13.4480     17.9300
Si          4.4820     11.2060     17.9300
Si         11.2060     13.4480     17.9300
Si         15.6890      8.9650     22.4130
Si          8.9650     11.2060     22.4120
Si         13.4470     15.6890     17.9300
Si         13.4470      8.9650     20.1710
Si          8.9650     13.4480     20.1710
Si         15.6890     13.4480     17.9300
Si         11.2060      8.9650     22.4130
Si         13.4470     11.2060     17.9300
Si          8.9650     15.6890     22.4120
Si         20.1710     13.4480     17.9300
Si         17.9300     11.2060     22.4120
Si         22.4120     15.6890     17.9300
Si         22.4120      8.9650     20.1710
Si         17.9300     13.4480     20.1710
Si         20.1710      8.9650     22.4130
Si         22.4120     11.2060     17.9300
Si         17.9300     15.6890     22.4120
Si          6.7240     17.9300     22.4120
Si          4.4820     17.9300     20.1710
Si          6.7240     22.4130     17.9300
Si          4.4820     20.1710     17.9300
Si         11.2060     22.4130     17.9300
Si         15.6890     17.9300     22.4120
Si          8.9650     20.1710     22.4120
Si         13.4470     17.9300     20.1710
Si          8.9650     22.4130     20.1710
Si         15.6890     22.4130     17.9300
Si         11.2060     17.9300     22.4120
Si         13.4470     20.1710     17.9300
Si         20.1710     22.4130     17.9300
Si         17.9300     20.1710     22.4120
Si         22.4120     17.9300     20.1710
Si         17.9300     22.4130     20.1710
Si         20.1710     17.9300     22.4120
Si         22.4120     20.1710     17.9300
96
tmp/SOD+687.xyz	0.0000
  O          10.280166   13.447500   7.649834
  O          10.280166   13.447500   16.614834
  O          19.245165   13.447500   7.649834
  O          19.245165   13.447500   16.614834
  O          14.762666   8.965000   12.132335
  O          14.762666   17.930000   12.132335
  O          7.649834   13.447500   7.649834
  O          7.649834   13.447500   16.614834
  O          16.614834   13.447500   7.649834
  O          16.614834   13.447500   16.614834
  O          12.132335   8.965000   12.132335
  O          12.132335   17.930000   12.132335
  O          7.649834   13.447500   10.280166
  O          7.649834   13.447500   19.245165
  O          16.614834   13.447500   10.280166
  O          16.614834   13.447500   19.245165
  O          12.132335   8.965000   14.762666
  O          12.132335   17.930000   14.762666
  O          10.280166   13.447500   10.280166
  O          10.280166   13.447500   19.245165
  O          19.245165   13.447500   10.280166
  O          19.245165   13.447500   19.245165
  O          14.762666   8.965000   14.762666
  O          14.762666   17.930000   14.762666
  O          7.649834   10.280166   13.447500
  O          7.649834   19.245165   13.447500
  O          16.614834   10.280166   13.447500
  O          16.614834   19.245165   13.447500
  O          12.132335   14.762666   8.965000
  O          12.132335   14.762666   17.930000
  O          7.649834   7.649834   13.447500
  O          7.649834   16.614834   13.447500
  O          16.614834   7.649834   13.447500
  O          16.614834   16.614834   13.447500
  O          12.132335   12.132335   8.965000
  O          12.132335   12.132335   17.930000
  O          10.280166   7.649834   13.447500
  O          10.280166   16.614834   13.447500
  O          19.245165   7.649834   13.447500
  O          19.245165   16.614834   13.447500
  O          14.762666   12.132335   8.965000
  O          14.762666   12.132335   17.930000
  O          10.280166   10.280166   13.447500
  O          10.280166   19.245165   13.447500
  O          19.245165   10.280166   13.447500
  O          19.245165   19.245165   13.447500
  O          14.762666   14.762666   8.965000
  O          14.762666   14.762666   17.930000
  O          13.447500   7.649834   10.280166
  O          13.447500   7.649834   19.245165
  O          13.447500   16.614834   10.280166
  O          13.447500   16.614834   19.245165
  O          8.965000   12.132335   14.762666
  O          17.930000   12.132335   14.762666
  O          13.447500   7.649834   7.649834
  O          13.447500   7.649834   16.614834
  O          13.447500   16.614834   7.649834
  O          13.447500   16.614834   16.614834
  O          8.965000   12.132335   12.132335
  O          17.930000   12.132335   12.132335
  O          13.447500   10.280166   7.649834
  O          13.447500   10.280166   16.614834
  O          13.447500   19.245165   7.649834
  O          13.447500   19.245165   16.614834
  O          8.965000   14.762666   12.132335
  O          17.930000   14.762666   12.132335
  O          13.447500   10.280166   10.280166
  O          13.447500   10.280166   19.245165
  O          13.447500   19.245165   10.280166
  O          13.447500   19.245165   19.245165
  O          8.965000   14.762666   14.762666
  O          17.930000   14.762666   14.762666
 Si          11.206250   13.447500   8.965000
 Si          11.206250   13.447500   17.930000
 Si          15.688750   8.965000   13.447500
 Si          15.688750   17.930000   13.447500
 Si          15.688750   13.447500   8.965000
 Si          15.688750   13.447500   17.930000
 Si          11.206250   8.965000   13.447500
 Si          11.206250   17.930000   13.447500
 Si          8.965000   11.206250   13.447500
 Si          17.930000   11.206250   13.447500
 Si          13.447500   15.688750   8.965000
 Si          13.447500   15.688750   17.930000
 Si          8.965000   15.688750   13.447500
 Si          17.930000   15.688750   13.447500
 Si          13.447500   11.206250   8.965000
 Si          13.447500   11.206250   17.930000
 Si          13.447500   8.965000   11.206250
 Si          13.447500   17.930000   11.206250
 Si          8.965000   13.447500   15.688750
 Si          17.930000   13.447500   15.688750
 Si          13.447500   8.965000   15.688750
 Si          13.447500   17.930000   15.688750
 Si          8.965000   13.447500   11.206250
 Si          17.930000   13.447500   11.206250
